/*--------------------------------*- C++ -*----------------------------------*\
  =========                 |
  \\      /  F ield         | OpenFOAM: The Open Source CFD Toolbox
   \\    /   O peration     | Website:  https://openfoam.org
    \\  /    A nd           | Version:  8
     \\/     M anipulation  |
\*---------------------------------------------------------------------------*/
FoamFile
{
    version     2.0;
    format      ascii;
    class       volVectorField;
    object      U;
}
// * * * * * * * * * * * * * * * * * * * * * * * * * * * * * * * * * * * * * //

dimensions      [0 1 -1 0 0 0 0];

internalField   uniform (0 0 0);

boundaryField
{
    inlet
    {
        type            codedFixedValue;
        value           uniform (0 0 0);
        
        redirectType    parabolicInlet;
        
        code
        #{
            const fvPatch& boundaryPatch = patch();
            const vectorField& Cf = boundaryPatch.Cf();
            vectorField& field = *this;
            
            const scalar H = 0.0075;
	    const scalar pCoeff = 2.439e04;

	    forAll(Cf, faceI)
	    {
	      const scalar y = Cf[faceI].y() - 0.0025;
	      field[faceI] = vector(pCoeff*y*(H-y), 0, 0);
	    }
        #};
    }

    outlet
    {
        type            zeroGradient;
    }

    walls
    {
        type            noSlip;
    }
    
    frontAndBack
    {
        type            empty;
    }
}

// ************************************************************************* //
